 CRYSTAL
 PRIMVEC
      3.13000000        0.00000000        0.00000000
     -1.56500000        2.71065900        0.00000000
      0.00000000        0.00000000        5.02000000
 CONVVEC
      3.13000000        0.00000000        0.00000000
     -1.56500000        2.71065900        0.00000000
      0.00000000        0.00000000        5.02000000
 PRIMCOORD
        4 1
13        1.56500000        0.90314559        2.50490041
13        0.00000000        1.80629121        5.01337791
7         1.56500000        0.90314559        4.41849749
7         0.00000000        1.80629121        1.91001999
