CRYSTAL
PRIMVEC
   3.1300000   0.0000000   0.0000000
   0.0000000   5.4213190   0.0000000
   0.0000000   0.0000000   5.0200000
CONVVEC
   3.1300000   0.0000000   0.0000000
   0.0000000   5.4213190   0.0000000
   0.0000000   0.0000000   5.0200000

PRIMCOORD
8 1
13    1.565000    0.903553    2.510000
 7    1.565000    0.903553    4.417600
13    0.000000    1.807106    0.000000
 7    0.000000    1.807106    1.907600
13    0.000000    3.614213    2.510000
 7    0.000000    3.614213    4.417600
13    1.565000    4.517766    0.000000
 7    1.565000    4.517766    1.907600

