 # File generated with Atomsk by colin on 2022-05-21 16:13:05
 CRYSTAL
 PRIMVEC
      3.13000000        0.00000000        0.00000000
      0.00000000        5.42131903        0.00000000
      0.00000000        0.00000000        5.02000000
 CONVVEC
      3.13000000        0.00000000        0.00000000
      0.00000000        5.42131903        0.00000000
      0.00000000        0.00000000        5.02000000
 PRIMCOORD
        8 1
13        1.56500000        0.90536028        2.51000000
13        0.00000000        3.61601979        2.51000000
7        1.56500000        0.90536028        4.41760000
7        0.00000000        3.61601979        4.41760000
7        0.00000000        1.80529924        1.90760000
7        1.56500000        4.51595875        1.90760000
13        0.00000000        1.80529924        0.00000000
13        1.56500000        4.51595875        0.00000000
