# NOTE: Approximate structure only
# see mp-5986 for the exact structure

CRYSTAL
PRIMVEC
   3.9900000   0.0000000   0.0000000
   0.0000000   3.9900000   0.0000000
   0.0000000   0.0000000   4.1000000
CONVVEC
   3.9900000   0.0000000   0.0000000
   0.0000000   3.9900000   0.0000000
   0.0000000   0.0000000   4.1000000

PRIMCOORD
5 1
56    0.000000    0.000000    0.000000
22    1.995000    1.995000    2.050000
 8    0.000000    1.995000    2.050000
 8    1.995000    0.000000    2.050000
 8    1.995000    1.995000    0.000000

