CRYSTAL
PRIMVEC
   0.0000000   2.7350000   2.7350000
   2.7350000   0.0000000   2.7350000
   2.7350000   2.7350000   0.0000000
CONVVEC
   0.0000000   2.7350000   2.7350000
   2.7350000   0.0000000   2.7350000
   2.7350000   2.7350000   0.0000000

PRIMCOORD
3 1
58    0.000000    0.000000    0.000000
 8    1.367500    1.367500    1.367500
 8    4.102500    4.102500    4.102500

