CRYSTAL
PRIMVEC
   3.8678741   0.0000000   0.0000000
   0.0000000   3.8678741   0.0000000
   0.0000000   0.0000000   5.4700000
CONVVEC
   3.8678741   0.0000000   0.0000000
   0.0000000   3.8678741   0.0000000
   0.0000000   0.0000000   5.4700000

PRIMCOORD
6 1
58    0.000000    0.000000    0.000000
58    1.933937    1.933937    2.735000
 8    1.933937    0.000000    1.367500
 8    1.933937    0.000000    4.102500
 8    0.000000    1.933937    1.367500
 8    0.000000    1.933937    4.102500

