CRYSTAL
PRIMVEC
  18.1419376   0.0000000   0.0000000
  -0.0000000   3.8678741   0.0000000
  -0.0000000  -0.0000000  12.8282871
CONVVEC
  18.1419376   0.0000000   0.0000000
  -0.0000000   3.8678741   0.0000000
  -0.0000000  -0.0000000  12.8282871

PRIMCOORD
66 1
 8   16.904987    1.933937    0.583104
 8   13.606453   -0.000000    0.000000
 8   15.255720    0.000000    3.498624
 8   17.729621    0.000000    2.332416
 8   16.904987    0.000000    6.997248
 8   11.957186    1.933937    2.915520
 8   14.431087    1.933937    1.749312
 8   13.606453    1.933937    6.414144
58   16.492671    1.933937    2.915520
 8   16.080354    1.933937    5.247936
 8   15.255720    1.933937    9.912767
 8   17.729621    1.933937    8.746559
 8    8.658652   -0.000000    2.332416
 8   11.132553   -0.000000    1.166208
 8   10.307919    0.000000    5.831040
58   13.194136    0.000000    2.332416
 8   12.781820   -0.000000    4.664832
 8   11.957186    0.000000    9.329663
58   14.843403   -0.000000    5.831040
 8   14.431087    0.000000    8.163455
58   16.492671    0.000000    9.329663
 8   16.080354    0.000000   11.662079
 8    5.360118    1.933937    1.749312
 8    7.834019    1.933937    0.583104
 8    7.009385    1.933937    5.247936
58    9.895602    1.933937    1.749312
 8    9.483286    1.933937    4.081728
 8    8.658652    1.933937    8.746559
58   11.544869    1.933937    5.247936
 8   11.132553    1.933937    7.580351
 8   10.307919    1.933937   12.245183
58   13.194136    1.933937    8.746559
 8   12.781820    1.933937   11.078975
58   14.843403    1.933937   12.245183
 8    2.061584   -0.000000    1.166208
 8    4.535484    0.000000   -0.000000
 8    3.710851   -0.000000    4.664832
58    6.597068    0.000000    1.166208
 8    6.184751   -0.000000    3.498624
 8    5.360118   -0.000000    8.163455
58    8.246335    0.000000    4.664832
 8    7.834019   -0.000000    6.997248
 8    7.009385    0.000000   11.662079
58    9.895602   -0.000000    8.163455
 8    9.483286    0.000000   10.495871
58   11.544869    0.000000   11.662079
 8    0.412317    1.933937    4.081728
58    3.298534    1.933937    0.583104
 8    2.886217    1.933937    2.915520
 8    2.061584    1.933937    7.580351
58    4.947801    1.933937    4.081728
 8    4.535484    1.933937    6.414144
 8    3.710851    1.933937   11.078975
58    6.597068    1.933937    7.580351
 8    6.184751    1.933937    9.912767
58    8.246335    1.933937   11.078975
58   -0.000000   -0.000000   -0.000000
58    1.649267   -0.000000    3.498624
 8    1.236950   -0.000000    5.831040
 8    0.412317   -0.000000   10.495871
58    3.298534    0.000000    6.997248
 8    2.886217   -0.000000    9.329663
58    4.947801   -0.000000   10.495871
58   -0.000000    1.933937    6.414144
58    1.649267    1.933937    9.912767
 8    1.236950    1.933937   12.245183

