CRYSTAL
PRIMVEC
   5.4700000   0.0000000   0.0000000
   0.0000000   5.4700000   0.0000000
   0.0000000   0.0000000   5.4700000
CONVVEC
   5.4700000   0.0000000   0.0000000
   0.0000000   5.4700000   0.0000000
   0.0000000   0.0000000   5.4700000

PRIMCOORD
12 1
58    0.000000    0.000000    0.000000
58    0.000000    2.735000    2.735000
58    2.735000    0.000000    2.735000
58    2.735000    2.735000    0.000000
 8    1.367500    1.367500    1.367500
 8    1.367500    1.367500    4.102500
 8    1.367500    4.102500    1.367500
 8    1.367500    4.102500    4.102500
 8    4.102500    1.367500    1.367500
 8    4.102500    1.367500    4.102500
 8    4.102500    4.102500    1.367500
 8    4.102500    4.102500    4.102500

