CRYSTAL
PRIMVEC
   4.2910000   0.0000000   0.0000000
   0.0000000   4.2910000   0.0000000
   0.0000000   0.0000000   4.2910000
CONVVEC
   4.2910000   0.0000000   0.0000000
   0.0000000   4.2910000   0.0000000
   0.0000000   0.0000000   4.2910000

PRIMCOORD
2 1
55    0.000000    0.000000    0.000000
35    2.145500    2.145500    2.145500

