CRYSTAL
PRIMVEC
   4.1230000   0.0000000   0.0000000
   0.0000000   4.1230000   0.0000000
   0.0000000   0.0000000   4.1230000
CONVVEC
   4.1230000   0.0000000   0.0000000
   0.0000000   4.1230000   0.0000000
   0.0000000   0.0000000   4.1230000

PRIMCOORD
2 1
55    0.000000    0.000000    0.000000
17    2.061500    2.061500    2.061500

