CRYSTAL
PRIMVEC
   3.9050000   0.0000000   0.0000000
   0.0000000   3.9050000   0.0000000
   0.0000000   0.0000000   3.9050000
CONVVEC
   3.9050000   0.0000000   0.0000000
   0.0000000   3.9050000   0.0000000
   0.0000000   0.0000000   3.9050000

PRIMCOORD
5 1
38    0.000000    0.000000    0.000000
22    1.952500    1.952500    1.952500
 8    0.000000    1.952500    1.952500
 8    1.952500    0.000000    1.952500
 8    1.952500    1.952500    0.000000

