CRYSTAL
PRIMVEC
   4.0022244   0.0000000   0.0000000
   0.0000000   4.0022244   0.0000000
   0.0000000   0.0000000   5.6600000
CONVVEC
   4.0022244   0.0000000   0.0000000
   0.0000000   4.0022244   0.0000000
   0.0000000   0.0000000   5.6600000

PRIMCOORD
4 1
30    0.000000    0.000000    0.000000
30    2.001112    2.001112    2.830000
34    2.001112    0.000000    1.415000
34    0.000000    2.001112    4.245000

