CRYSTAL
PRIMVEC
   0.0000000   2.8300000   2.8300000
   2.8300000   0.0000000   2.8300000
   2.8300000   2.8300000  -0.0000000
CONVVEC
   0.0000000   2.8300000   2.8300000
   2.8300000   0.0000000   2.8300000
   2.8300000   2.8300000  -0.0000000

PRIMCOORD
2 1
30    0.000000    0.000000    0.000000
34    1.415000    1.415000    1.415000

