CRYSTAL
PRIMVEC
   6.9410000   0.0000000   0.0000000
   0.0000000   4.0070000   0.0000000
   0.0000000   0.0000000  32.7200000
CONVVEC
   6.9410000   0.0000000   0.0000000
   0.0000000   4.0070000   0.0000000
   0.0000000   0.0000000  32.7200000

PRIMCOORD
40 1
30    3.470500    2.003500    0.000000
34    3.470500    2.003500    2.454000
30    0.000000    0.000000    0.000000
34    0.000000    0.000000    2.454000
30    5.784167    2.003500    3.272000
34    5.784167    2.003500    5.726000
30    2.313667    0.000000    3.272000
34    2.313667    0.000000    5.726000
30    1.156833    2.003500    6.544000
34    1.156833    2.003500    8.998000
30    4.627333    0.000000    6.544000
34    4.627333    0.000000    8.998000
30    5.784167    2.003500    9.816000
34    5.784167    2.003500   12.270000
30    2.313667    0.000000    9.816000
34    2.313667    0.000000   12.270000
30    3.470500    2.003500   13.088000
34    3.470500    2.003500   15.542000
30    0.000000    0.000000   13.088000
34    0.000000    0.000000   15.542000
30    5.784167    2.003500   16.360000
34    5.784167    2.003500   18.814000
30    2.313667    0.000000   16.360000
34    2.313667    0.000000   18.814000
30    1.156833    2.003500   19.632000
34    1.156833    2.003500   22.086000
30    4.627333    0.000000   19.632000
34    4.627333    0.000000   22.086000
30    3.470500    2.003500   22.904000
34    3.470500    2.003500   25.358000
30    0.000000    0.000000   22.904000
34    0.000000    0.000000   25.358000
30    5.784167    2.003500   26.176000
34    5.784167    2.003500   28.630000
30    2.313667    0.000000   26.176000
34    2.313667    0.000000   28.630000
30    1.156833    2.003500   29.448000
34    1.156833    2.003500   31.902000
30    4.627333    0.000000   29.448000
34    4.627333    0.000000   31.902000

