CRYSTAL
PRIMVEC
   5.6600000   0.0000000   0.0000000
   0.0000000   5.6600000   0.0000000
   0.0000000   0.0000000   5.6600000
CONVVEC
   5.6600000   0.0000000   0.0000000
   0.0000000   5.6600000   0.0000000
   0.0000000   0.0000000   5.6600000

PRIMCOORD
8 1
30    0.000000    0.000000    0.000000
30    0.000000    2.830000    2.830000
30    2.830000    0.000000    2.830000
30    2.830000    2.830000    0.000000
34    1.415000    1.415000    1.415000
34    1.415000    4.245000    4.245000
34    4.245000    1.415000    4.245000
34    4.245000    4.245000    1.415000

